#
# *******************
# Calendar Parameters
# *******************
 &CAL_NML
 TheCalendar='gregorian',
 startDate_1=19790101,
 startDate_2=060000,
 calendarDumps = .TRUE.,
 &
